HLA-029.sdf
  ChemDraw07312511462D

 36 39  0  0  0  0  0  0  0  0999 V2000
   -4.6784   -1.9413    0.0000 C   0  0  0  0  0  0  0  0  0  0  0  0
   -4.6784   -2.7635    0.0000 C   0  0  0  0  0  0  0  0  0  0  0  0
   -3.9663   -3.1748    0.0000 C   0  0  0  0  0  0  0  0  0  0  0  0
   -3.2547   -2.7635    0.0000 C   0  0  0  0  0  0  0  0  0  0  0  0
   -3.2547   -1.9413    0.0000 C   0  0  0  0  0  0  0  0  0  0  0  0
   -3.9663   -1.5305    0.0000 C   0  0  0  0  0  0  0  0  0  0  0  0
   -2.5426   -1.5305    0.0000 C   0  0  0  0  0  0  0  0  0  0  0  0
   -1.8305   -1.9413    0.0000 C   0  0  0  0  0  0  0  0  0  0  0  0
   -1.1183   -1.5305    0.0000 C   0  0  0  0  0  0  0  0  0  0  0  0
   -0.4068   -1.9413    0.0000 C   0  0  0  0  0  0  0  0  0  0  0  0
    0.3054   -1.5305    0.0000 N   0  0  0  0  0  0  0  0  0  0  0  0
    1.0175   -1.9413    0.0000 C   0  0  0  0  0  0  0  0  0  0  0  0
    1.0175   -2.7635    0.0000 C   0  0  0  0  0  0  0  0  0  0  0  0
    1.7296   -3.1748    0.0000 C   0  0  0  0  0  0  0  0  0  0  0  0
    2.4412   -2.7635    0.0000 C   0  0  0  0  0  0  0  0  0  0  0  0
    2.4412   -1.9413    0.0000 C   0  0  0  0  0  0  0  0  0  0  0  0
    1.7296   -1.5305    0.0000 C   0  0  0  0  0  0  0  0  0  0  0  0
    3.2232   -3.0178    0.0000 N   0  0  0  0  0  0  0  0  0  0  0  0
    3.7068   -2.3527    0.0000 C   0  0  0  0  0  0  0  0  0  0  0  0
    3.2232   -1.6875    0.0000 C   0  0  0  0  0  0  0  0  0  0  0  0
   -0.4068   -2.7635    0.0000 O   0  0  0  0  0  0  0  0  0  0  0  0
   -5.3906   -3.1748    0.0000 O   0  0  0  0  0  0  0  0  0  0  0  0
   -6.1021   -2.7635    0.0000 C   0  0  0  0  0  0  0  0  0  0  0  0
    4.5289   -2.3527    0.0000 O   0  0  0  0  0  0  0  0  0  0  0  0
    4.2814   -0.7348    0.0000 N   0  0  0  0  0  0  0  0  0  0  0  0
    3.4776   -0.9055    0.0000 N   0  0  0  0  0  0  0  0  0  0  0  0
    4.5358    0.0473    0.0000 C   0  0  0  0  0  0  0  0  0  0  0  0
    5.3396    0.2180    0.0000 C   0  0  0  0  0  0  0  0  0  0  0  0
    5.5940    1.0000    0.0000 C   0  0  0  0  0  0  0  0  0  0  0  0
    5.0440    1.6108    0.0000 C   0  0  0  0  0  0  0  0  0  0  0  0
    4.2396    1.4400    0.0000 C   0  0  0  0  0  0  0  0  0  0  0  0
    3.9858    0.6580    0.0000 C   0  0  0  0  0  0  0  0  0  0  0  0
    5.2978    2.3928    0.0000 C   0  0  0  0  0  0  0  0  0  0  0  0
    4.7163    2.9743    0.0000 F   0  0  0  0  0  0  0  0  0  0  0  0
    5.5521    3.1748    0.0000 F   0  0  0  0  0  0  0  0  0  0  0  0
    6.1021    2.5635    0.0000 F   0  0  0  0  0  0  0  0  0  0  0  0
  1  2  2  0      
  2  3  1  0      
  3  4  2  0      
  4  5  1  0      
  5  6  2  0      
  6  1  1  0      
  5  7  1  0      
  7  8  2  0      
  8  9  1  0      
  9 10  1  0      
 10 11  1  0      
 11 12  1  0      
 12 13  2  0      
 13 14  1  0      
 14 15  2  0      
 15 16  1  0      
 16 17  2  0      
 17 12  1  0      
 15 18  1  0      
 18 19  1  0      
 19 20  1  0      
 20 16  1  0      
 10 21  2  0      
  2 22  1  0      
 22 23  1  0      
 19 24  2  0      
 25 26  1  0      
 27 28  1  0      
 28 29  2  0      
 29 30  1  0      
 30 31  2  0      
 31 32  1  0      
 27 32  2  0      
 33 34  1  0      
 33 35  1  0      
 33 36  1  0      
 30 33  1  0      
 25 27  1  0      
 20 26  2  0      
M  END
$$$$
