HLA-031.sdf
  ChemDraw07312511472D

 31 34  0  0  0  0  0  0  0  0999 V2000
    2.6638    0.5151    0.0000 N   0  0  0  0  0  0  0  0  0  0  0  0
    3.4676    0.3438    0.0000 N   0  0  0  0  0  0  0  0  0  0  0  0
    3.7220   -0.4377    0.0000 C   0  0  0  0  0  0  0  0  0  0  0  0
    3.1720   -1.0490    0.0000 C   0  0  0  0  0  0  0  0  0  0  0  0
    3.4258   -1.8310    0.0000 C   0  0  0  0  0  0  0  0  0  0  0  0
    4.2301   -2.0018    0.0000 C   0  0  0  0  0  0  0  0  0  0  0  0
    4.7801   -1.3910    0.0000 C   0  0  0  0  0  0  0  0  0  0  0  0
    4.5258   -0.6090    0.0000 C   0  0  0  0  0  0  0  0  0  0  0  0
    4.4839   -2.7838    0.0000 Cl  0  0  0  0  0  0  0  0  0  0  0  0
    2.3676   -0.8783    0.0000 Cl  0  0  0  0  0  0  0  0  0  0  0  0
   -3.3564    1.1395    0.0000 C   0  0  0  0  0  0  0  0  0  0  0  0
   -3.3564    0.3174    0.0000 C   0  0  0  0  0  0  0  0  0  0  0  0
   -2.6443   -0.0934    0.0000 C   0  0  0  0  0  0  0  0  0  0  0  0
   -1.9322    0.3174    0.0000 C   0  0  0  0  0  0  0  0  0  0  0  0
   -1.9322    1.1395    0.0000 C   0  0  0  0  0  0  0  0  0  0  0  0
   -2.6443    1.5509    0.0000 C   0  0  0  0  0  0  0  0  0  0  0  0
   -4.0680   -0.0934    0.0000 C   0  0  0  0  0  0  0  0  0  0  0  0
   -4.7801   -0.5047    0.0000 N   0  0  0  0  0  0  0  0  0  0  0  0
   -1.2200    1.5509    0.0000 C   0  0  0  0  0  0  0  0  0  0  0  0
   -1.2200    2.3730    0.0000 O   0  0  0  0  0  0  0  0  0  0  0  0
   -0.5085    1.1395    0.0000 N   0  0  0  0  0  0  0  0  0  0  0  0
    0.2037    1.5509    0.0000 C   0  0  0  0  0  0  0  0  0  0  0  0
    0.9158    1.1395    0.0000 C   0  0  0  0  0  0  0  0  0  0  0  0
    1.6279    1.5509    0.0000 C   0  0  0  0  0  0  0  0  0  0  0  0
    1.6279    2.3730    0.0000 C   0  0  0  0  0  0  0  0  0  0  0  0
    0.9158    2.7838    0.0000 C   0  0  0  0  0  0  0  0  0  0  0  0
    0.2037    2.3730    0.0000 C   0  0  0  0  0  0  0  0  0  0  0  0
    2.4094    1.2965    0.0000 C   0  0  0  0  0  0  0  0  0  0  0  0
    2.8929    1.9617    0.0000 C   0  0  0  0  0  0  0  0  0  0  0  0
    2.4094    2.6268    0.0000 N   0  0  0  0  0  0  0  0  0  0  0  0
    3.7151    1.9617    0.0000 O   0  0  0  0  0  0  0  0  0  0  0  0
  1  2  1  0      
  3  4  1  0      
  4  5  2  0      
  5  6  1  0      
  6  7  2  0      
  7  8  1  0      
  3  8  2  0      
  2  3  1  0      
  6  9  1  0      
  4 10  1  0      
 11 12  2  0      
 12 13  1  0      
 13 14  2  0      
 14 15  1  0      
 15 16  2  0      
 16 11  1  0      
 12 17  1  0      
 17 18  3  0      
 15 19  1  0      
 19 20  2  0      
 19 21  1  0      
 21 22  1  0      
 22 23  1  0      
 23 24  2  0      
 24 25  1  0      
 25 26  2  0      
 26 27  1  0      
 27 22  2  0      
 24 28  1  0      
 28 29  1  0      
 29 30  1  0      
 30 25  1  0      
 29 31  2  0      
 28  1  2  0      
M  END
$$$$
