HLA-033.sdf
  ChemDraw07312511482D

 33 36  0  0  0  0  0  0  0  0999 V2000
   -3.6228    1.5360    0.0000 C   0  0  0  0  0  0  0  0  0  0  0  0
   -3.6228    0.7110    0.0000 C   0  0  0  0  0  0  0  0  0  0  0  0
   -2.9084    0.2985    0.0000 C   0  0  0  0  0  0  0  0  0  0  0  0
   -2.1940    0.7110    0.0000 C   0  0  0  0  0  0  0  0  0  0  0  0
   -2.1940    1.5360    0.0000 C   0  0  0  0  0  0  0  0  0  0  0  0
   -2.9084    1.9485    0.0000 C   0  0  0  0  0  0  0  0  0  0  0  0
   -4.3373    0.2985    0.0000 C   0  0  0  0  0  0  0  0  0  0  0  0
   -5.0517   -0.1140    0.0000 N   0  0  0  0  0  0  0  0  0  0  0  0
   -1.4796    1.9485    0.0000 C   0  0  0  0  0  0  0  0  0  0  0  0
   -1.4796    2.7735    0.0000 O   0  0  0  0  0  0  0  0  0  0  0  0
   -0.7651    1.5360    0.0000 N   0  0  0  0  0  0  0  0  0  0  0  0
   -0.0507    1.9485    0.0000 C   0  0  0  0  0  0  0  0  0  0  0  0
    0.6637    1.5360    0.0000 C   0  0  0  0  0  0  0  0  0  0  0  0
    1.3782    1.9485    0.0000 C   0  0  0  0  0  0  0  0  0  0  0  0
    1.3782    2.7735    0.0000 C   0  0  0  0  0  0  0  0  0  0  0  0
    0.6637    3.1860    0.0000 C   0  0  0  0  0  0  0  0  0  0  0  0
   -0.0507    2.7735    0.0000 C   0  0  0  0  0  0  0  0  0  0  0  0
    2.1630    1.6935    0.0000 C   0  0  0  0  0  0  0  0  0  0  0  0
    2.6477    2.3610    0.0000 C   0  0  0  0  0  0  0  0  0  0  0  0
    2.1630    3.0284    0.0000 N   0  0  0  0  0  0  0  0  0  0  0  0
    3.4727    2.3610    0.0000 O   0  0  0  0  0  0  0  0  0  0  0  0
    3.2247    0.7373    0.0000 N   0  0  0  0  0  0  0  0  0  0  0  0
    2.4180    0.9086    0.0000 N   0  0  0  0  0  0  0  0  0  0  0  0
    3.4796   -0.0476    0.0000 C   0  0  0  0  0  0  0  0  0  0  0  0
    4.2869   -0.2189    0.0000 C   0  0  0  0  0  0  0  0  0  0  0  0
    4.5418   -1.0038    0.0000 C   0  0  0  0  0  0  0  0  0  0  0  0
    3.9895   -1.6168    0.0000 C   0  0  0  0  0  0  0  0  0  0  0  0
    3.1828   -1.4455    0.0000 C   0  0  0  0  0  0  0  0  0  0  0  0
    2.9279   -0.6606    0.0000 C   0  0  0  0  0  0  0  0  0  0  0  0
    4.2445   -2.4011    0.0000 C   0  0  0  0  0  0  0  0  0  0  0  0
    3.6927   -3.0147    0.0000 F   0  0  0  0  0  0  0  0  0  0  0  0
    4.4994   -3.1860    0.0000 F   0  0  0  0  0  0  0  0  0  0  0  0
    5.0517   -2.5730    0.0000 F   0  0  0  0  0  0  0  0  0  0  0  0
  1  2  2  0      
  2  3  1  0      
  3  4  2  0      
  4  5  1  0      
  5  6  2  0      
  6  1  1  0      
  2  7  1  0      
  7  8  3  0      
  5  9  1  0      
  9 10  2  0      
  9 11  1  0      
 11 12  1  0      
 12 13  1  0      
 13 14  2  0      
 14 15  1  0      
 15 16  2  0      
 16 17  1  0      
 17 12  2  0      
 14 18  1  0      
 18 19  1  0      
 19 20  1  0      
 20 15  1  0      
 19 21  2  0      
 22 23  1  0      
 24 25  1  0      
 25 26  2  0      
 26 27  1  0      
 27 28  2  0      
 28 29  1  0      
 24 29  2  0      
 30 31  1  0      
 30 32  1  0      
 30 33  1  0      
 27 30  1  0      
 22 24  1  0      
 18 23  2  0      
M  END
$$$$
