HLA-011.sdf
  ChemDraw07312511312D

 25 27  0  0  0  0  0  0  0  0999 V2000
   -1.8468    2.5498    0.0000 N   0  0  0  0  0  0  0  0  0  0  0  0
   -1.0424    2.3785    0.0000 C   0  0  0  0  0  0  0  0  0  0  0  0
   -0.9565    1.5609    0.0000 C   0  0  0  0  0  0  0  0  0  0  0  0
   -1.7076    1.2263    0.0000 C   0  0  0  0  0  0  0  0  0  0  0  0
   -1.9614    0.4449    0.0000 C   0  0  0  0  0  0  0  0  0  0  0  0
   -2.7658    0.2736    0.0000 C   0  0  0  0  0  0  0  0  0  0  0  0
   -3.3158    0.8849    0.0000 C   0  0  0  0  0  0  0  0  0  0  0  0
   -3.0620    1.6663    0.0000 C   0  0  0  0  0  0  0  0  0  0  0  0
   -2.2576    1.8376    0.0000 C   0  0  0  0  0  0  0  0  0  0  0  0
    0.4678    1.5609    0.0000 C   0  0  0  0  0  0  0  0  0  0  0  0
   -0.2443    1.1501    0.0000 C   0  0  0  0  0  0  0  0  0  0  0  0
    0.4678    2.3830    0.0000 O   0  0  0  0  0  0  0  0  0  0  0  0
    1.1793    1.1501    0.0000 N   0  0  0  0  0  0  0  0  0  0  0  0
    1.1793    0.3280    0.0000 N   0  0  0  0  0  0  0  0  0  0  0  0
    1.8915   -0.0834    0.0000 C   0  0  0  0  0  0  0  0  0  0  0  0
    2.6036    0.3280    0.0000 C   0  0  0  0  0  0  0  0  0  0  0  0
    3.3158   -0.0834    0.0000 C   0  0  0  0  0  0  0  0  0  0  0  0
    1.8915   -0.9055    0.0000 C   0  0  0  0  0  0  0  0  0  0  0  0
    1.1793   -1.3163    0.0000 C   0  0  0  0  0  0  0  0  0  0  0  0
    1.1793   -2.1384    0.0000 C   0  0  0  0  0  0  0  0  0  0  0  0
    1.8915   -2.5498    0.0000 C   0  0  0  0  0  0  0  0  0  0  0  0
    2.6036   -2.1384    0.0000 C   0  0  0  0  0  0  0  0  0  0  0  0
    2.6036   -1.3163    0.0000 C   0  0  0  0  0  0  0  0  0  0  0  0
    0.4678   -2.5498    0.0000 O   0  0  0  0  0  0  0  0  0  0  0  0
   -0.2443   -2.1384    0.0000 C   0  0  0  0  0  0  0  0  0  0  0  0
  1  2  1  0      
  2  3  2  0      
  3  4  1  0      
  4  5  1  0      
  5  6  2  0      
  6  7  1  0      
  7  8  2  0      
  8  9  1  0      
  1  9  1  0      
  4  9  2  0      
 10 11  1  0      
 10 12  2  0      
 13 14  1  0      
 10 13  1  0      
  3 11  1  0      
 15 16  1  0      
 16 17  1  0      
 18 19  1  0      
 19 20  2  0      
 20 21  1  0      
 21 22  2  0      
 22 23  1  0      
 18 23  2  0      
 15 18  1  0      
 24 25  1  0      
 20 24  1  0      
 14 15  2  0      
M  END
$$$$
