HLA-027.sdf
  ChemDraw07312511382D

 34 37  0  0  0  0  0  0  0  0999 V2000
   -3.9053   -1.7769    0.0000 C   0  0  0  0  0  0  0  0  0  0  0  0
   -3.9053   -2.6019    0.0000 C   0  0  0  0  0  0  0  0  0  0  0  0
   -3.1909   -3.0144    0.0000 C   0  0  0  0  0  0  0  0  0  0  0  0
   -2.4764   -2.6019    0.0000 C   0  0  0  0  0  0  0  0  0  0  0  0
   -2.4764   -1.7769    0.0000 C   0  0  0  0  0  0  0  0  0  0  0  0
   -3.1909   -1.3644    0.0000 C   0  0  0  0  0  0  0  0  0  0  0  0
   -1.7620   -1.3644    0.0000 C   0  0  0  0  0  0  0  0  0  0  0  0
   -1.0470   -1.7769    0.0000 C   0  0  0  0  0  0  0  0  0  0  0  0
   -0.3326   -1.3644    0.0000 C   0  0  0  0  0  0  0  0  0  0  0  0
    0.3818   -1.7769    0.0000 C   0  0  0  0  0  0  0  0  0  0  0  0
    1.0963   -1.3644    0.0000 N   0  0  0  0  0  0  0  0  0  0  0  0
    1.8107   -1.7769    0.0000 C   0  0  0  0  0  0  0  0  0  0  0  0
    1.8107   -2.6019    0.0000 C   0  0  0  0  0  0  0  0  0  0  0  0
    2.5251   -3.0144    0.0000 C   0  0  0  0  0  0  0  0  0  0  0  0
    3.2396   -2.6019    0.0000 C   0  0  0  0  0  0  0  0  0  0  0  0
    3.2396   -1.7769    0.0000 C   0  0  0  0  0  0  0  0  0  0  0  0
    2.5251   -1.3644    0.0000 C   0  0  0  0  0  0  0  0  0  0  0  0
    4.0245   -2.8569    0.0000 N   0  0  0  0  0  0  0  0  0  0  0  0
    4.5091   -2.1894    0.0000 C   0  0  0  0  0  0  0  0  0  0  0  0
    4.0245   -1.5220    0.0000 C   0  0  0  0  0  0  0  0  0  0  0  0
    0.3818   -2.6019    0.0000 O   0  0  0  0  0  0  0  0  0  0  0  0
   -4.6197   -3.0144    0.0000 O   0  0  0  0  0  0  0  0  0  0  0  0
   -5.3341   -2.6019    0.0000 C   0  0  0  0  0  0  0  0  0  0  0  0
    5.3341   -2.1894    0.0000 O   0  0  0  0  0  0  0  0  0  0  0  0
    3.7271   -0.1240    0.0000 N   0  0  0  0  0  0  0  0  0  0  0  0
    4.2794   -0.7371    0.0000 N   0  0  0  0  0  0  0  0  0  0  0  0
    3.9821    0.6603    0.0000 C   0  0  0  0  0  0  0  0  0  0  0  0
    3.4298    1.2739    0.0000 C   0  0  0  0  0  0  0  0  0  0  0  0
    3.6847    2.0582    0.0000 C   0  0  0  0  0  0  0  0  0  0  0  0
    4.4920    2.2295    0.0000 C   0  0  0  0  0  0  0  0  0  0  0  0
    5.0437    1.6165    0.0000 C   0  0  0  0  0  0  0  0  0  0  0  0
    4.7887    0.8322    0.0000 C   0  0  0  0  0  0  0  0  0  0  0  0
    4.7469    3.0144    0.0000 Cl  0  0  0  0  0  0  0  0  0  0  0  0
    2.6231    1.1020    0.0000 Cl  0  0  0  0  0  0  0  0  0  0  0  0
  1  2  2  0      
  2  3  1  0      
  3  4  2  0      
  4  5  1  0      
  5  6  2  0      
  6  1  1  0      
  5  7  1  0      
  7  8  2  0      
  8  9  1  0      
  9 10  1  0      
 10 11  1  0      
 11 12  1  0      
 12 13  2  0      
 13 14  1  0      
 14 15  2  0      
 15 16  1  0      
 16 17  2  0      
 17 12  1  0      
 15 18  1  0      
 18 19  1  0      
 19 20  1  0      
 20 16  1  0      
 10 21  2  0      
  2 22  1  0      
 22 23  1  0      
 19 24  2  0      
 25 26  1  0      
 27 28  1  0      
 28 29  2  0      
 29 30  1  0      
 30 31  2  0      
 31 32  1  0      
 27 32  2  0      
 30 33  1  0      
 28 34  1  0      
 25 27  1  0      
 20 26  2  0      
M  END
$$$$
